Geom Title=Geometry
Program Version=6.70
Viewing Rectangle= 102.898145657358 , 103.841807995485 , 16.3770123099331 , 16.159060734147 

LCMann Time=Dec-30-1899 00:00:00
LCMann Region Time=Dec-30-1899 00:00:00
LCMann Table=0
Chan Stop Cuts=-1 



Use User Specified Reach Order=0
GIS Ratio Cuts To Invert=-1
GIS Limit At Bridges=0
Composite Channel Slope=5
