Geom Title=Geometry
Program Version=6.70
Viewing Rectangle= 102.898145657358 , 103.841807995485 , 16.377012309933 , 16.159060734147 

River Reach=Chi River       ,Reach 2         
Reach XY= 2348 
102.94886651749516.3671054201246     102.9501151      16.3656713
     102.9506529      16.3646358     102.9519209       16.360996
     102.9518746      16.3599502      102.951725      16.3593931
     102.9513403      16.3587882     102.9506102      16.3583712
     102.9498907      16.3583097     102.9482949      16.3590171
     102.9458906      16.3596631     102.9442557      16.3604081
     102.9429022      16.3612352     102.9421257      16.3612762
     102.9415772      16.3609174      102.941132      16.3603398
     102.9410394      16.3596836     102.9416912      16.3582379
     102.9424997      16.3569084     102.9435683      16.3556849
     102.9445549      16.3550663     102.9475683      16.3542938
     102.9486771      16.3536389     102.9498087      16.3535659
     102.9510126      16.3538256      102.951782      16.3541093
     102.9562273      16.3580465     102.9567687      16.3584259
     102.9576561      16.3587864     102.9586529      16.3588463
     102.9598247      16.3585673     102.9605621      16.3578312
     102.9612424      16.3568298     102.9615345      16.3556712
      102.961766      16.3543656      102.961652      16.3534633
     102.9610607      16.3526738     102.9602201      16.3518159
      102.957278      16.3504727     102.9566582      16.3500182
     102.9564944       16.349608     102.9566867      16.3492081
     102.9580082      16.3482682     102.9592442      16.3476325
     102.9612567      16.3474513     102.9634828      16.3474548
     102.9674365      16.3469762     102.9685229       16.346508
      102.969278      16.3458176     102.9693493      16.3452092
     102.9691783      16.3444948      102.968587      16.3440334
     102.9678736      16.3437983     102.9671968      16.3431553
     102.9670762      16.3425894     102.9672236      16.3418949
      102.967753      16.3413612      102.968537      16.3410525
     102.9702861      16.3409818     102.9715593      16.3407696
     102.9731609      16.3399915     102.9758816       16.337953
      102.977577      16.3370656     102.9788837      16.3368148
     102.9817585      16.3371106     102.9828776      16.3369498
     102.9835477      16.3361975     102.9837823       16.335355
     102.9835946      16.3346284     102.9825895        16.33313
      102.979775      16.3311365     102.9789373      16.3301783
     102.9785821      16.3288857     102.9787095       16.328249
     102.9790646       16.327741     102.9797481      16.3274709
     102.9807801      16.3269178     102.9818523      16.3255416
     102.9829446      16.3233743     102.9835008      16.3230978
     102.9842514      16.3232328     102.9849684      16.3236187
     102.9870122      16.3262104     102.9877494      16.3266284
     102.9906425      16.3267676      102.991167      16.3271172
     102.9913747      16.3276638     102.9911335      16.3283197
     102.9896659      16.3295545     102.9895252      16.3304934
     102.9900546      16.3313165     102.9908319      16.3315802
     102.9917567      16.3315673     102.9931908      16.3305191
     102.9938542      16.3295095     102.9957037      16.3272329
     102.9976873       16.326294     103.0001265      16.3254001
     103.0006157      16.3249435       103.00081      16.3242618
     103.0004683      16.3236637     102.9995234      16.3228855
     102.9980424      16.3226797     102.9966687       16.322281
     102.9958511      16.3219466     102.9951073      16.3214128
     102.9945913      16.3205575      102.993881      16.3171746
     102.9935258      16.3166151     102.9927686      16.3165572
     102.9922057      16.3169367     102.9916897      16.3180364
     102.9909056      16.3194513     102.9902489      16.3200301
      102.989425      16.3200858     102.9887546      16.3197278
     102.9883458      16.3187439     102.9883525      16.3174383
     102.9894515      16.3121839     102.9901752       16.310904
     102.9914819      16.3096949     103.0017902      16.3042382
     103.0042428      16.3034097     103.0053043      16.3028355
       103.00775       16.300353     103.0082544      16.3000209
     103.0087999      16.2999365     103.0107177      16.3013269
     103.0119435      16.3027905     103.0141077      16.3045918
     103.0156385      16.3064607     103.0168291      16.3072319
     103.0179376      16.3075865     103.0193334      16.3076822
     103.0204126      16.3074964     103.0211985      16.3071024
     103.0217557      16.3063256     103.0225827      16.3042316
     103.0237557      16.3028637     103.0248055      16.3019123
     103.0255562      16.3009441     103.0272102      16.2979212
     103.0281661      16.2969417     103.0292979      16.2962044
     103.0317673      16.2951065     103.0333332       16.293564
     103.0346353      16.2931812     103.0374563      16.2929673
     103.0441742      16.2909457     103.0454973      16.2908506
     103.0464943      16.2909857     103.0470127      16.2912205
      103.047262      16.2913848     103.0474679        16.29165
      103.048465      16.2945379     103.0491218      16.2948701
      103.050201      16.2944929     103.0523909      16.2930681
     103.0549764       16.291774     103.0567112       16.290496
     103.0577082      16.2894151     103.0584179      16.2878895
     103.0583475          16.287     103.0574501      16.2850127
     103.0573915      16.2841739     103.0580191      16.2829916
      103.059151      16.2820852     103.0602302      16.2820346
     103.0622595      16.2823893     103.0630336      16.2821528
     103.0634383      16.2815166     103.0627638      16.2793829
     103.0627404      16.2777221     103.0635556      16.2762696
     103.0648753      16.2752393     103.0654911      16.2744511
     103.0665937      16.2722892     103.0679761      16.2700447
     103.0682389      16.2685404     103.0682248       16.267063
     103.0680559      16.2661216     103.0665497      16.2639055
     103.0661134      16.2629596     103.0660993      16.2620498
     103.0665169      16.2614732      103.067962      16.2610588
     103.0691491      16.2604282     103.0699796      16.2595274
     103.0703315      16.2585724     103.0702236      16.2569283
     103.0697966      16.2557977     103.0688864      16.2541896
     103.0693603      16.2530005     103.0699749      16.2524824
     103.0731842      16.2514194     103.0749391       16.250586
     103.0826293      16.2457121     103.0835395      16.2453066
     103.0899394      16.2432029     103.0912109      16.2425092
      103.091896      16.2420227     103.0924402      16.2412974
     103.0926373      16.2403875     103.0926608      16.2395721
     103.0923042      16.2383783     103.0918256      16.2377206
     103.0911218      16.2372251     103.0892594      16.2369266
       103.08808      16.2362691     103.0877998      16.2355583
     103.0879969       16.234797     103.0884145      16.2342023
     103.0891324      16.2338509     103.0905541      16.2334995
     103.0928109      16.2326751     103.0939605      16.2319814
     103.0952179      16.2315084     103.0961375      16.2317516
     103.0976812      16.2329229     103.0989809      16.2329905
     103.1008249      16.2325715     103.1035181      16.2323913
     103.1051931      16.2326571     103.1067509      16.2335626
      103.107328      16.2341663     103.1082101      16.2355358
     103.1092339      16.2362325      103.109776      16.2361228
      103.110402      16.2356555     103.1110964      16.2339184
     103.1111302      16.2327687     103.1109012      16.2316551
     103.1086793      16.2294631     103.1079179      16.2286269
     103.1075752      16.2279159     103.1074786      16.2267641
     103.1077837      16.2262329     103.1099964      16.2255104
     103.1105861       16.225733     103.1115176      16.2265844
     103.1121399      16.2266703     103.1127459      16.2264712
     103.1132666      16.2260611     103.1134659      16.2253855
     103.1133764      16.2245028     103.1130006       16.223045
     103.1128273      16.2219643     103.1132178      16.2195077
      103.113762      16.2178582     103.1142143      16.2172894
     103.1154142      16.2164536     103.1172079      16.2160083
      103.119628      16.2159693     103.1225525      16.2155006
     103.1239476      16.2156959     103.1279011      16.2171175
     103.1289261      16.2170589     103.1297518      16.2166332
     103.1305734       16.215735      103.130728      16.2153678
       103.13037      16.2148054     103.1287756      16.2140829
     103.1282209      16.2136984     103.1271527       16.212958
     103.1249767      16.2113763     103.1233171      16.2093062
     103.1227558       16.207701      103.122223      16.2066308
     103.1216332      16.2060879     103.1212794      16.2059512
     103.1207831      16.2060488     103.1200266      16.2065995
     103.1194328      16.2074432     103.1193026       16.209025
     103.1194572      16.2104545     103.1192538      16.2120363
     103.1188308      16.2127628     103.1178953      16.2128135
     103.1165734      16.2123214     103.1157599      16.2116379
      103.115467      16.2105873     103.1157721       16.206869
      103.115825      16.2037014     103.1159348      16.2032054
     103.1162887      16.2028343     103.1177936      16.2021039
     103.1190301       16.201768     103.1234229       16.199737
     103.1293875      16.1975659     103.1302022      16.1975207
     103.1333194      16.1971306      103.141956      16.1947227
     103.1470106      16.1945698     103.1513887      16.1960222
     103.1584731      16.1960986     103.1622939      16.1945316
     103.1663535      16.1952196     103.1671495      16.1939965
     103.1661545      16.1915886     103.1667515      16.1898686
     103.1688211      16.1889513     103.1731076      16.1880201
     103.1783334      16.1872695     103.1829104      16.1878046
     103.1864526       16.189257     103.1921441      16.1987741
     103.1936565      16.1994238     103.1969997      16.1991563
     103.1991748      16.2018299     103.1999907      16.2021772
     103.2010917      16.2019023     103.2024835      16.2010978
     103.2051681      16.1978293     103.2080243      16.1951431
     103.2084206       16.194873     103.2088926      16.1947288
     103.2094505      16.1946464     103.2100299      16.1947082
     103.2107809      16.1949101     103.2128623      16.1961053
     103.2146862      16.1971603     103.2151154      16.1973417
     103.2157591        16.19749     103.2166389      16.1975271
     103.2174757      16.1976343      103.218334       16.197964
     103.2196858      16.1987841     103.2204583      16.1991756
     103.2210591      16.1993198     103.2215312      16.1992621
     103.2218745      16.1990561     103.2222178      16.1986439
     103.2226041       16.197795     103.2228401      16.1967688
     103.2230762      16.1962743     103.2234195      16.1958209
     103.2237413      16.1956107     103.2240203      16.1955077
     103.2245138        16.19545     103.2251146      16.1954706
     103.2256296      16.1955489     103.2263806       16.195755
     103.2271746      16.1959198     103.2278183      16.1958786
     103.2285264      16.1957138     103.2293633      16.1953264
     103.2310155      16.1944197     103.2316163      16.1941724
     103.2322386      16.1940694     103.2329467      16.1941065
     103.2337835      16.1943538     103.2355216      16.1951574
     103.2372811      16.1962495     103.2384703      16.1971765
     103.2387403       16.197387     103.2397917      16.1983926
     103.2403131      16.1988696     103.2406124      16.1994033
     103.2407959      16.1999843      103.240886      16.2005149
     103.2408646      16.2009683     103.2406071      16.2015906
     103.2400706       16.202353     103.2396415      16.2029505
     103.2394194      16.2033503     103.2392984      16.2036719
     103.2393198      16.2039398       103.23947      16.2043313
      103.239749      16.2046404     103.2402854      16.2048464
     103.2408004      16.2049083     103.2417617      16.2048269
     103.2424526      16.2046198     103.2442122      16.2040016
      103.244916      16.2038996     103.2456927      16.2038986
     103.2463365      16.2041047     103.2467828      16.2044354
     103.2470875      16.2049289     103.2472978      16.2058159
     103.2475767      16.2065165     103.2479286      16.2069523
      103.248375      16.2071748     103.2490401      16.2072984
     103.2499843      16.2072778     103.2514005      16.2070924
     103.2524305      16.2070924     103.2533531      16.2072366
     103.2541471      16.2075045     103.2550655          16.208
      103.255971       16.208679     103.2567005      16.2094001
     103.2570868      16.2099358     103.2572541      16.2104314
     103.2572112      16.2109671     103.2568937      16.2115636
     103.2560997      16.2123672     103.2551985      16.2131501
     103.2540827      16.2138919     103.2529454      16.2146336
     103.2525163      16.2149839     103.2523232      16.2153136
      103.252276      16.2158091     103.2523875      16.2163438
      103.252688      16.2167353       103.25316      16.2169413
     103.2540183      16.2169619     103.2547221      16.2168187
     103.2551727      16.2165509     103.2557993      16.2158287
     103.2568464      16.2144698     103.2575116      16.2137899
     103.2581554      16.2132954     103.2589965      16.2128823
     103.2595544      16.2127381     103.2601724      16.2127185
     103.2605404      16.2129029     103.2609663      16.2133366
     103.2613987      16.2140979     103.2616133      16.2151487
     103.2618246      16.2166539     103.2619534      16.2173956
     103.2622323      16.2180961     103.2626647      16.2186102
     103.2630724      16.2188987     103.2636914      16.2190233
     103.2643599      16.2190429      103.266055      16.2188574
     103.2666097      16.2188585     103.2671247      16.2189821
     103.2675356      16.2192695     103.2677469       16.219662
     103.2677684      16.2201977     103.2675538      16.2207746
     103.2668457      16.2217636     103.2666022      16.2223013
     103.2664809      16.2228143     103.2665668      16.2233088
     103.2668275      16.2238847     103.2672781      16.2245852
      103.268072      16.2254711     103.2682689      16.2259476
     103.2683397      16.2263833      103.268278      16.2267856
     103.2681761      16.2270792     103.2679588      16.2273635
     103.2676429      16.2275314      103.267085       16.227758
     103.2659692      16.2281083     103.2654542      16.2283761
     103.2648963      16.2288706     103.2643813      16.2295917
     103.2642923      16.2300048     103.2643813       16.230457
     103.2646173       16.230868     103.2650894      16.2311976
     103.2663737      16.2317766      103.266953       16.232065
     103.2675753       16.232271     103.2681579      16.2323926
     103.2689486      16.2324358      103.270236      16.2323122
     103.2707328      16.2322896     103.2716769      16.2323102
     103.2728571       16.232372     103.2738409       16.232374
     103.2747024      16.2323102     103.2758365      16.2321062
     103.2769555      16.2317127     103.2775134      16.2314243
     103.2778106      16.2311791     103.2780713      16.2307856
     103.2782215      16.2301273     103.2781571      16.2295917
     103.2778996      16.2283967     103.2778138      16.2275932
     103.2778567      16.2269957     103.2780069      16.2263777
     103.2782827      16.2258224     103.2785863      16.2251209
     103.2786507      16.2245646     103.2785863      16.2240083
     103.2783288       16.223555     103.2781266      16.2233868
     103.2778138       16.223246     103.2771701      16.2231224
     103.2762816      16.2230041     103.2759042      16.2228645
     103.2756681       16.222679     103.2754214      16.2223602
     103.2752926      16.2219584      103.275239      16.2214949
     103.2753033      16.2209283     103.2754321      16.2203823
     103.2756574      16.2198466     103.2759578      16.2192594
      103.276344       16.218734     103.2766874       16.218394
     103.2771272      16.2180334     103.2776916      16.2177249
     103.2784147      16.2174668     103.2789511      16.2173226
      103.279655      16.2172407     103.2806248      16.2171887
     103.2816119      16.2171887     103.2825984      16.2173056
     103.2835388       16.217488     103.2850301         16.2179
     103.2869227      16.2185485     103.2880492      16.2189503
     103.2888431      16.2192594     103.2895072      16.2196441
     103.2899911      16.2200629     103.2903731      16.2205373
     103.2907958      16.2211446     103.2911284      16.2219172
     103.2916434      16.2229675     103.2920189      16.2234826
     103.2925553      16.2239049      103.293184       16.224215
     103.2937741      16.2243695     103.2944178      16.2244931
     103.2950401      16.2245137     103.2957525      16.2244303
     103.2964713      16.2243582     103.2969198      16.2243731
     103.2972878      16.2244813     103.2976665      16.2246559
     103.2979948      16.2249248     103.2982952      16.2252441
     103.2985742      16.2256459     103.2987888      16.2262228
     103.2989926      16.2269645     103.2991643      16.2274692
     103.2994218      16.2279225     103.2997329      16.2282624
     103.3001084      16.2284685     103.3005118      16.2285519
      103.300809      16.2285308     103.3011062       16.228417
     103.3013192      16.2282408      103.301471      16.2280564
      103.301589      16.2277474     103.3016855      16.2273559
     103.3017027      16.2269758     103.3016319      16.2266245
     103.3014495      16.2261713     103.3011813       16.225718
     103.3008916      16.2253883     103.3006663      16.2250484
     103.3005054      16.2246466      103.300441      16.2242861
      103.300441      16.2239152     103.3005268       16.223462
     103.3007199      16.2229057     103.3010633      16.2221748
     103.3015568      16.2212785     103.3021469       16.220372
      103.302679      16.2197544     103.3031618      16.2192599
     103.3038206      16.2187031     103.3045609       16.218188
     103.3050651      16.2179304     103.3055801       16.217745
      103.305737      16.2177265     103.3061874      16.2176734
     103.3069105      16.2177553     103.3080799      16.2179922
      103.309067      16.2182498     103.3096994      16.2183976
     103.3103523      16.2184594     103.3109022      16.2184486
     103.3114128      16.2183379     103.3119852      16.2181164
     103.3124353      16.2178537     103.3128543       16.217472
     103.3133397        16.21703     103.3137834      16.2166947
     103.3142812      16.2163233     103.3146095      16.2160251
     103.3149249      16.2156125     103.3153755       16.215118
     103.3159442      16.2144587      103.316384      16.2139333
     103.3167488      16.2135006       103.31706      16.2131915
      103.317414      16.2129545     103.3177573      16.2127794
     103.3181329      16.2127176     103.3185191      16.2127588
     103.3187659      16.2129133     103.3190663      16.2132636
     103.3191414      16.2136551     103.3192486       16.214026
     103.3193452      16.2143453     103.3194847      16.2146647
     103.3197207      16.2149635     103.3203215      16.2155404
     103.3209288      16.2162826     103.3213365      16.2168389
     103.3216197      16.2173432     103.3217592      16.2178171
     103.3218343      16.2183425     103.3216519      16.2188061
     103.3213944      16.2190533     103.3210296      16.2192388
     103.3203816      16.2193742     103.3197341      16.2193866
     103.3190968      16.2192939     103.3182289       16.218975
     103.3172354      16.2186531     103.3166383      16.2185382
     103.3160611      16.2185341     103.3155257      16.2185794
     103.3149893      16.2186825     103.3145065      16.2188576
     103.3141095      16.2191151      103.313734      16.2195066
     103.3132941      16.2202895      103.312865      16.2211755
     103.3122427      16.2221645     103.3114059       16.223225
     103.3105368      16.2243685     103.3101077      16.2250278
     103.3098931      16.2256047     103.3098716      16.2261197
     103.3100004      16.2266554     103.3103008      16.2270778
     103.3108265      16.2274486     103.3114488      16.2277268
     103.3121526      16.2279544      103.312689      16.2282635
     103.3133542       16.228861     103.3139915      16.2296119
     103.3144636      16.2300961     103.3148391      16.2302918
     103.3152425      16.2303752     103.3156759      16.2303742
     103.3161759      16.2302413     103.3169698       16.230025
     103.3177037      16.2298282      103.318562      16.2294059
     103.3192765      16.2289434     103.3199138      16.2287054
     103.3209223      16.2283036     103.3221132      16.2278401
     103.3232076      16.2274898     103.3239318      16.2272581
     103.3246993      16.2269029     103.3252353      16.2265627
      103.325643      16.2264185     103.3262117      16.2263515
      103.327296      16.2262941     103.3283474      16.2262735
     103.3292057      16.2261602     103.3299352      16.2258614
     103.3311369      16.2249652      103.331845      16.2246046
     103.3330037      16.2241411     103.3337333      16.2237805
     103.3342697      16.2233582     103.3346559      16.2226679
     103.3347847      16.2218438     103.3346989        16.22069
     103.3345916      16.2196588     103.3345272      16.2189799
     103.3346345      16.2184957     103.3349778       16.218094
     103.3354713      16.2177437     103.3360078      16.2175789
     103.3368017      16.2175274     103.3386256      16.2176304
     103.3393112      16.2175995     103.3400622      16.2174346
     103.3406426      16.2172595     103.3412864      16.2169298
     103.3420792      16.2164869     103.3427884      16.2161881
     103.3435609      16.2160645     103.3446123      16.2161263
     103.3461133      16.2163014     103.3471218       16.216322
     103.3482386      16.2161881     103.3490744      16.2161984
     103.3495679      16.2164663     103.3498909      16.2169917
     103.3501044      16.2175995     103.3501666       16.218129
     103.3504488      16.2185163     103.3507478      16.2188768
     103.3511987      16.2190005     103.3517137      16.2189799
     103.3521429      16.2187945     103.3526149      16.2183618
     103.3530655      16.2176819     103.3533542      16.2172492
     103.3536846      16.2170236     103.3541813      16.2168371
     103.3547178      16.2168165      103.355383      16.2169814
     103.3561565      16.2170947     103.3568636      16.2170432
     103.3575931      16.2168371     103.3584729      16.2165075
      103.359417      16.2161984     103.3602753      16.2160748
      103.360962       16.216116     103.3614984      16.2163426
     103.3619286       16.216868     103.3623792      16.2176922
        103.3627      16.2184648     103.3628932       16.219186
     103.3630166      16.2201987     103.3631325      16.2207632
     103.3631411      16.2212865     103.3630987      16.2217558
     103.3630005      16.2221648     103.3628509      16.2225279
     103.3624378      16.2232397     103.3620923      16.2238985
     103.3619469      16.2243142     103.3618901        16.22465
     103.3618987      16.2250132     103.3619604      16.2254118
     103.3620875      16.2257667     103.3623058      16.2260876
     103.3626052      16.2263997     103.3629479      16.2266197
      103.363405      16.2268221     103.3637483      16.2269318
     103.3642756      16.2270415     103.3647595      16.2270673
     103.3652809       16.227008     103.3659408      16.2268643
     103.3664761      16.2266954     103.3669155      16.2264924
     103.3673301      16.2261886     103.3677861       16.225775
     103.3681418      16.2254036      103.368749      16.2246243
     103.3690038      16.2242951     103.3693252      16.2240438
      103.369602      16.2239068     103.3699271      16.2238475
     103.3702087      16.2238898     103.3704313      16.2240082
       103.37053      16.2242045     103.3705917      16.2244996
     103.3706437      16.2250487     103.3706952      16.2257667
     103.3707832      16.2263323     103.3709415      16.2270415
     103.3711539      16.2277842     103.3714248      16.2285306
     103.3718121      16.2292651     103.3721721      16.2297631
       103.37248      16.2300165     103.3727965      16.2301937
     103.3732836      16.2303122     103.3737058      16.2303714
     103.3742245      16.2303457     103.3748049      16.2302447
     103.3755082      16.2302025     103.3761616      16.2301432
     103.3767329      16.2300335     103.3772221      16.2298867
     103.3778203      16.2296339     103.3783567      16.2293804
     103.3791104      16.2289529     103.3796823      16.2286655
     103.3801479      16.2285223     103.3805969      16.2284631
     103.3809837      16.2284883     103.3813914      16.2285898
     103.3818307      16.2288231     103.3821826      16.2290961
     103.3825871      16.2295185     103.3830881      16.2301942
     103.3834749      16.2307284     103.3839234      16.2311929
     103.3845419      16.2317332      103.385008      16.2321473
      103.385272      16.2324595     103.3854388      16.2327551
     103.3854919      16.2329833     103.3854565      16.2332393
     103.3853514      16.2335009     103.3850225      16.2338635
      103.384551      16.2342354     103.3839851      16.2346072
     103.3835629      16.2349446     103.3832904      16.2353165
     103.3830533      16.2358846     103.3829385      16.2364758
     103.3829476      16.2372438     103.3830093      16.2376239
     103.3831498      16.2378855     103.3833258      16.2380797
     103.3836423      16.2382064      103.384029      16.2382656
     103.3844244      16.2382203     103.3847672      16.2381106
     103.3851754      16.2378773     103.3860198      16.2371341
     103.3865031       16.236805     103.3869634      16.2366108
     103.3874027      16.2364923     103.3879129      16.2364588
     103.3882911      16.2364923     103.3886017      16.2365989
     103.3889155      16.2367627      103.389188      16.2369821
     103.3894165      16.2372438     103.3896134      16.2375224
     103.3898333        16.23797     103.3901584      16.2388255
     103.3905012      16.2399653     103.3906595      16.2404128
     103.3907566      16.2406915     103.3909148      16.2409109
     103.3911433      16.2410911     103.3914158      16.2412178
     103.3917323      16.2412431     103.3920842      16.2411926
     103.3924008      16.2410741     103.3927087      16.2407872
     103.3929372      16.2404159     103.3930547       16.239974
     103.3931072       16.239442     103.3930606      16.2386509
     103.3928755      16.2376208     103.3926738      16.2367262
     103.3926502      16.2363151     103.3927001      16.2359067
     103.3928669      16.2354679     103.3931131       16.235113
     103.3934066      16.2348684     103.3937671      16.2346742
     103.3941715      16.2345727     103.3945819      16.2345645
     103.3949687      16.2346402     103.3953469      16.2348344
      103.395687      16.2351048     103.3960153      16.2355019
     103.3963109      16.2360195     103.3966279      16.2367457
     103.3968741      16.2374045     103.3971375        16.23797
     103.3975914      16.2387492      103.398793       16.240624
     103.3998133      16.2421145     103.4005708      16.2433454
     103.4011185      16.2440824     103.4013711      16.2443162
     103.4016372      16.2444203     103.4019162      16.2444429
     103.4022091      16.2444033     103.4024816      16.2442683
     103.4027981      16.2440654     103.4029885      16.2438594
     103.4046568      16.2412894     103.4049552      16.2407175
     103.4051895      16.2401326     103.4054041      16.2392478
     103.4058086      16.2375482     103.4060548      16.2367287
     103.4063037      16.2358763     103.4063397      16.2355271
     103.4063659      16.2350708     103.4062957      16.2342771
      103.406198      16.2336019     103.4061632      16.2332053
     103.4061803      16.2328983     103.4062511      16.2326619
     103.4064266      16.2324255     103.4066905      16.2322401
     103.4069898      16.2321386     103.4074292      16.2320964
     103.4078513      16.2321473     103.4087397      16.2323075
     103.4094816      16.2324008      103.410282      16.2324682
     103.4110115      16.2324595     103.4115571       16.232392
     103.4120731      16.2322591     103.4125179      16.2320289
     103.4129486       16.231708     103.4133359      16.2312862
     103.4136261      16.2308891     103.4138815      16.2303714
     103.4140574      16.2297466     103.4142945      16.2286233
     103.4144206      16.2281927     103.4146051      16.2277425
      103.414861      16.2273959     103.4152215      16.2270838
     103.4156866      16.2268051     103.4162231      16.2265769
      103.417165      16.2263663     103.4177809      16.2263158
     103.4181762      16.2263663     103.4185373      16.2265434