Geom Title=Geometry
Program Version=6.60
Viewing Rectangle= 275490.49963442 , 376170.880433131 , 1811796.29093734 , 1786867.47887183 

Junct Name=Junction 1      
Junct Desc=, 0 ,-1 ,-1 ,0
Junct X Y & Text X Y=361566,1793864.25,,
Up River,Reach=Chi River_US    ,Reach 1         
Up River,Reach=lampao          ,Reach 1         
Dn River,Reach=Chi River_DS    ,Reach 2         
Junc L&A=126.9,
Junc L&A=135.6,

River Reach=Chi River_US    ,Reach 1         
Reach XY= 2254 
 280911.54552047 1810648.6323201281043.3581772941810488.56044327
281099.668064894 1810373.3737264281231.0994349551809969.16210207
281224.9860696781809853.46483227281208.379318525  1809791.967119
281166.597260455 1809725.4320899281088.1162293611809680.06547245
281011.164210405 1809674.0337638280841.4321155111809754.04741178
280585.2392639061809828.13949448280411.3736015831809912.36056005
280267.6702602671810005.36563218280184.7428382721810010.74314402
280125.7304883761809971.62496683280077.5109191221809908.17865031
280066.8805798161809835.65149765280134.9099307831809674.93821748
280219.8151922561809526.91672249280332.6342566431809390.34658202
280437.3689242651809320.81514256280758.5142601661809232.06429661
280876.2685536551809158.38585309280997.1091404751809149.08718009
281126.0466096931809176.53394674281208.5802015851809207.10521783
281687.9787921651809638.08740156281746.2528406221809679.49716976
281841.4778424151809718.44388175281948.0584838441809724.00390999
282072.9624480221809691.86819521282150.9409995961809609.60804258
282222.5242586251809498.04667927282252.4518572911809369.50289331
282275.7412650921809224.75451543282262.5586473151809125.01235595
282198.4971915871809038.26579227282107.7192243491808944.21613401
281791.834271487 1808798.7086567 281725.096823871808749.07078053
281707.1369971731808703.84660289281727.2418810581808659.38020987
281867.4150523271808553.93655806281998.790489627  1808482.253708
282213.6493022531808460.04308967 282451.538606431808458.04827285
282873.5089611631808400.85375501282989.0864170951808347.87546545
283069.0154715711808270.65871886 283075.962853081808203.24686195
283056.9003001621808124.36163058 282993.202361451808073.92592692
 282916.706132381808048.66685137282843.670009029 1807978.2238095
282830.1566273571807915.72041536282845.1407769021807838.69792183
282901.1252114531807779.06470761282984.5663667121807744.06243478
283171.4060185851807734.37297367 283307.232521631807709.53110676
283477.5301337221807621.70876081283766.0355216731807393.20190096
283946.2411178621807293.18717417284085.6083465461807264.04293358
284393.1534163011807293.73347133284512.571388597 1807274.7516102
284583.358071133 1807190.7807282284607.5057587741807097.28795118
284586.6504421661807017.06941021284477.5947501481806852.29632581
284174.6242119571806634.64503561 284084.047003091806529.48325464
284044.6669345841806386.79986424284057.5831088851806316.19722191
284094.9754198641806259.59720643284167.7258112221806228.97906323
284277.4108274311806166.67067598284390.4903297851806013.22294712
284504.8529553821805772.19903075284563.9933960111805741.00882678
284644.3608405841805755.15638141284721.4117803631805797.10828663
284942.6739256571806081.78756909285021.9169909061806127.27170711
285331.2597709711806139.62607932285387.6954628411806177.76544464
285410.4891148691806238.04178909285385.4276351121806310.88800892
285229.9327162731806449.09745275285215.9217245281806553.15917045
285273.3974857031806643.69786494285356.7548064841806672.06340214
285455.5731787341806669.66096159285607.6909048341806552.14038569
285677.4876028081806439.70416252285872.6645101571806185.79521249
286083.6326818531806079.79780548286343.3424473191805978.30508648
286395.1282763471805927.25781888286415.1532684691805851.60698929
286377.985386747 1805785.7706524 286276.15573195 1805700.6345638
286117.6525876461805679.41202886285970.4066608361805636.72864626
285882.6626827491805600.57804408285802.5885881361805542.28153385
285746.5099715521805448.16361256 285666.911807181805074.50744719
285628.3397060051805012.95828268 285547.349315321805007.34687499
 285487.60187182  1805049.940608285433.6524832531805172.19353845
285351.3942422471805329.61399344285281.8406695861805394.36488998
285193.8468692111805401.39797969285121.8066273331805362.48306212
285077.0411397531805254.02055961285076.3311682431805109.51549566
285188.0539467811804526.82356094285264.0065821051804384.40760977
285402.3490679411804249.21409477 286498.190193751803634.47264312
286759.4349842361803540.21274767286872.2705815561803475.55390431
287130.9936005811803198.25084207287184.5476678411803160.96962146
287242.7624023161803151.05969005287449.2470029011803302.94170414
287581.8441596371803463.64729028287815.1019068671803660.75149153
287980.729509276 1803865.9977719288108.8122114261803950.11184982
288227.670947433 1803988.2051536288376.9576638931803997.34742879
288492.1034445911803975.66447998288575.6777761351803931.24402566
288634.397897329 1803844.6951512288720.5420532741803612.08784208
288844.4483095771803459.48284353288955.6345319761803353.10167133
289034.8349136761803245.17120779289208.3863454041802908.90737407
289309.5106543331802799.51567672289429.6960976841802716.74804014
289692.4689045321802592.69343231289858.1978623151802420.36741587
289996.9679785681802376.66151645290298.2698225971802350.08781038
291014.1845318761802119.46183591291155.5075059061802107.58263668
291262.218050342  1802121.514536291317.8773758311802146.97021693
291344.6984398281802164.89874138291366.9873262961802194.03845833
 291476.620277961802512.62887009291547.1743745721802548.72302247
 291662.126749021802505.87546544291894.6917321221802345.95589611
292169.6823726951802200.10110128 292353.76394098 1802056.8972519
292459.1930959951801936.25856419292533.4463407221801766.69695781
292524.9853733911801668.32637479292426.9707233771801449.30141543
292419.8240170911801356.52987326292485.6649029821801225.04528303
292605.7025803841801123.58297123292721.0074381181801116.88731145
292938.2959733951801154.08366507293020.7927755141801127.12522462
293063.3844877451801056.30621317292989.0465022361800820.85108479
292984.8025084221800637.07243111293070.4194548121800475.49692459
293210.4091745351800360.13643721293275.4097778081800272.28250636
293391.0100082411800031.90815058293536.4367813061799782.11064776
293562.9565326381799615.36338967293559.9044030661799451.87291509
293540.864619282 1799347.8582257293377.5322951241799104.12289062
293329.9011828481798999.88052841293327.4417771831798899.20662456
 293371.481097321798834.97187231293525.533337809 1798787.6501748
293651.7792140931798716.66302662293739.6218503591798616.13321457
293776.2443259491798510.08808684293762.9929978531798328.24372968
 293716.164004321798203.55041367293617.1785902021798026.49949057
293666.6001194931797894.42326192 293731.764638631797836.46516153
 294073.755539391797715.58965874294260.5009019531797621.59169085
295077.5941835491797074.48161292295174.4841661831797028.69397984
295856.5298468111796789.48513098295991.7522979261796711.44633175
296064.4959615091796656.92319087296121.9298402641796576.11289376
296142.0644189321796475.21889892296143.7364532451796384.95601224
296104.380520178 1796253.1944658296052.5333123751796180.88411218
295976.7758283441796126.74873154295777.349434622 1796095.5705255
295650.5745929331796023.98212926295619.8825674871795945.59808781
295640.1693315361795861.14893523295684.2034561331795794.91732235
295760.5961385831795755.31214283295912.2371724291795715.00582661
296152.6777243631795621.52290866296274.8755145821795543.60816324
296408.826917894 1795490.0116507296507.3984827691795516.01250418
296673.6504871671795644.10572458296812.6796143611795650.29715119
297009.4040801741795602.09866129297297.1676797111795579.48906714
297476.5252363861795607.24780451297644.0057630881795705.91816222
297706.3241678051795772.15842647297802.0339792461795922.84730449
297912.2050070611795998.93916774297970.0512697521795986.26399788
298036.5026565471795933.93137398298108.971657335 1795741.0054228
298111.4123838511795613.73720299298085.7923312861795490.72314047
 297845.994801031795250.33029707297763.7329596571795158.54114661
297726.3653914921795080.19447047297714.8600044191794952.82237347
297746.9384625611794893.73433074297982.7826927561794811.59398969
298046.0605759461794835.64738742298146.5246552051794928.95214965
298213.1482084431794937.84557247298277.7384847531794915.21492592
298332.9936921241794869.31754273298353.6146507861794794.35429541
298343.1462293191794696.75597643298301.4804525151794535.79440556
 298281.850074031794416.36635979298321.1013255831794144.11583807
298377.6098138311793961.03423598 298425.392738981793897.64172976
298552.8412939281793803.96642731298744.1797701241793752.92467912
299002.9090425441793746.23466305299315.1356298571793691.50028226
299464.5042239721793711.74859714299888.6668383971793865.20998395
299998.2045020171793857.72472693300086.0617984881793809.80858134
300173.0044461591793709.60680789 300189.16459511 1793668.8193328
300150.3182681011793606.92927434299979.1077373711793528.52715194
299919.4079438961793486.51691654299804.4418951721793405.62171469
 299570.170792011793232.70526184299390.6191018511793005.23601615
299328.9750483851792828.14230546299270.9194288371792710.22768125
299207.302334194  1792650.723698299169.3319853781792635.94181256
299116.3614574551792647.22882379299036.0271235171792708.91413832
298973.387834465  1792802.865853 298961.070089121792978.04688932
298979.0512438311793136.09419952298958.9069268881793311.34705378
298914.4140991971793392.16156324298814.4357325161793398.68993806
 298672.58939462 1793345.5278006  298584.90954931793270.68538255
298552.5225078091793154.70581328298581.3674327241792742.91144269
298583.8056545461792392.30944456298595.0428831431792337.31064434
298632.5091761731792295.89464988298792.6900053681792213.58703634
298924.5712442741792175.20190606299392.2492439271791946.13803473
300027.8740677141791700.04888607300114.9478298941791694.25322499
300447.8904814071791648.04926185301369.025999959 1791373.2001384
301621.3863778221791349.72401755301804.885121364 1791352.3738189
301908.0620908311791363.98214011301979.1095601791791381.52163376
 302039.392540911791399.40779287 302131.473137851791434.51766077
302240.1149932331791468.96507833302371.718390146 1791498.6323774
302430.2382401531791498.11289319302513.0445323651791492.15084015
302588.5638708631791486.18878711302730.3282431311791474.92713137
302809.1598333171791472.93978036302878.0546684381791474.26468103
302914.4894370111791477.57693272302949.5993049091791482.21408509
303016.5067890171791491.48838981303137.9676444661791496.30561739
303172.1826183761791488.83858846303543.6622021111791332.48256717
303978.4516698681791404.73946266304062.362790264 1791268.6257543
303953.5839465261791003.10628806304015.7257121531790812.19337203
304236.1364715651790708.70691152304693.6045326361790601.57526991
305251.6995474621790513.54870649305741.6747770811790568.43056384
306121.884777554  1790725.811279306739.7802613151791773.64005512
306902.1343071521791844.11453718307259.3623450311791811.36979068
307494.5409131261792105.19698327307582.1207896091792142.86503725
 307699.582079241792111.41178705307847.6252225511792021.07988434
308131.523567975 1791656.8673843308434.343446219 1791356.9382682
308476.4596615181791326.67860418308526.7922395791791310.28082998
308586.3699502591791300.64202576308648.3858144721791306.94085989
308728.8861683111791328.58377858308952.6044452591791458.90926044
309148.6505169681791573.96131686309194.7194279951791593.63643578
 309263.69288314 1791609.4494079309357.8054633011791612.73768237
309447.3873331491791623.82367833309539.4817127181791659.51236481
309684.8159293661791749.01237442309767.794096081 1791791.6203868
309832.175161337 1791807.0210876309882.6008691551791800.19855713
309919.1120499291791777.08427795309955.4257243111791731.15161353
309995.9191768841791636.85324569310020.1716512451791523.07376507
 310044.944278941791468.13307489310081.2193379681791417.64144952
310115.4283485541791394.08270175310145.1633920021791382.42652178
310197.8784218231791375.58503829310262.1420121431791377.30931777
310317.2861045961791385.49822679310397.7878638951791407.61184159
 310482.847972461791425.11572041310551.6395873671791419.96235022
310627.1995237291791401.07204296310716.3197925341791357.43003433
310892.1258714511791255.57088917310956.1342580111791227.65108439
 311022.579255361791215.68010638311098.3323749291791219.13402572
311188.0474865891791245.73081524311374.6677532391791333.06043242
311563.8487464141791452.29753634311691.8893136811791553.78901889
311720.9599388881791576.83548335311834.3388699161791687.15200205
 311890.543649091791739.45933214311923.0532881171791798.24474924
311943.2254291751791862.37055403311953.3626986481791921.00463636
311951.5043925841791971.19786437311924.5609344051792040.29806431
311867.9181882761792125.15765739311822.6032287841792191.67097336
311799.2344819241792236.11688937311786.6017622051792271.81642313
311789.1442705491792301.44286011311805.5760541871792344.62885583
311835.701497897  1792378.578281311893.2514457231792400.88260878
311948.376394574 1792407.2604569312051.0859041831792397.37188504
 312124.763904411792373.82130672312312.3234240211792303.80055877
312387.4807160541792291.86956018312470.5284251331792291.04892628
 312539.561586471792313.26782086312587.5947350131792349.45559965
312620.6410832651792403.78831141312643.9655202791792501.75218318
312674.448603717 1792579.0263044312712.4867058751792626.93089933
 312760.427394251792651.14540855312831.6586347981792664.21615458
 312932.595863141792661.07537807313083.8452908351792639.26815437
313193.9759447271792638.33002987313292.758845425 1792653.4474054
313377.9077609871792682.37085874313476.5717401181792736.36777119
313574.0284943921792810.68294034313652.7059676751792889.81714449
313694.5132870471792948.74687723313712.8670281561793003.43807959
313708.7836689511793062.75765905313675.3971906041793129.05481364
313591.2583579691793218.70278287313495.6389651411793306.15796802
313377.0367681231793389.26079196313256.1365870351793472.37286637
313210.5879525891793511.52800073313190.2528210351793548.18863269
 313185.673485281793603.06385924313198.0990322971793662.13239452
313230.5969609651793705.18219838313281.2562772541793727.54835627
313373.0430288131793729.04654541 313448.156728011793712.55952489
313496.081670256 1793682.5147935313562.3966615911793602.02614118
313673.0725848211793450.69829504313743.5558070111793374.85619547
313811.9256512541793319.55018317313901.4675051931793273.07310985
313960.982504546 1793256.6097825 314027.040380791793253.88036111
314066.5597865191793273.95240039314112.5036081761793321.55954708
 314159.449461441793405.41307344314183.3796840061793521.50006069
314207.3830365711793687.87392156314221.8495355251793769.83368781
314252.3254960941793847.09827794314299.0381476311793903.59684442
314342.8982903851793935.15298512314409.1960590081793948.38075782
314480.6877193381793949.94464761314661.7472418431793927.88411661
314721.0545287141793927.50446964314776.2317882371793940.71666163
314820.4321741281793972.14906515314843.3903487691794015.39213671
314846.1898008681794074.65310198314823.7851839661794138.68650693
314749.0038695531794248.76874652314723.4732740431794308.49056678
314710.9845841111794365.36866711 314720.631141971794420.01226608
314749.0422503231794483.50556973314797.8725020211794560.61548795
314883.5787829951794657.93166987 314905.075261961794710.48316881
314913.0519397951794758.63365322314906.8315930281794803.20777977
314896.2118143761794835.78951416314873.2458197621794867.44637533
314839.6295915881794886.31156763314780.1958528511794911.89127692
314661.2324110831794951.66432548314606.4240734841794981.76492876
314547.2417905211795036.99111081314492.8586193781795117.25418181
314483.7307809051795163.04838379  314493.66957461795213.00821913
314519.2854211251795258.27577442314570.0661850381795294.32191891
314707.911824254  1795357.231948314770.1140756341795388.62236097
314836.8361098181795410.85569908314899.2347847921795423.78541494
314983.8077148961795427.85161689 315121.326150251795413.01177457
315174.4171585681795410.06257359315275.3686256531795411.49059805
315401.5995135271795417.26548934315506.7777370561795416.60053455
315598.8197301851795408.76477984315719.8743874861795385.16973289
315839.1385908671795340.61901351315898.514547776 1795308.2034296
315930.0597404291795280.80272056315957.5649437411795237.02408586
315973.0106157551795164.04218029315965.6276923591795104.83093389
315936.9873376341794972.82443785315927.0673323881794883.98680963
315931.0982694531794817.82937909315946.5817774871794749.30706801
315975.5517811271794687.61032501316007.3582581961794609.71030899
316013.726478637 1794548.0927947316006.3244194551794486.59091094
315978.3731834341794436.66028454315956.599089196 1794418.2289614
315923.0258490861794402.92904347315854.0910095371794389.82976791
315758.9886459261794377.53722361315718.5096943151794362.42845838
315693.0948224891794342.11344126315666.4225435621794307.05709563
315652.2780553911794262.71001592 315646.116021311794211.46762948
315652.4632059991794148.71024045315665.7256159191794088.17444301
315689.3149940711794028.69169449315720.8859363591793963.44252966
315761.6879172311793904.95506895315798.0865316881793867.02237826
315844.7728091761793826.72359486315904.8294085611793792.07839212
315981.9005912051793762.86815597316039.1164683091793746.42977884
316114.2987063691793736.73539329316217.9377274871793730.11162715
316323.4746197021793729.22712525316429.0556394141793741.27969551
316529.7683294961793760.62216829316689.5931007741793804.87973782
316892.5408083781793874.95075618317013.3518096031793918.40766009
317098.516888925 1793951.9038246317169.8739675951793993.88183555
317221.9962949271794039.79416259  317263.27517391794091.95003953
317309.0278347451794158.77622515317345.2998064821794243.97462022
317401.3284491971794359.74042657317441.9489428631794416.40614398
317499.6858320841794462.65953542317567.187050816 1794496.4150184
317630.4179531911794512.98658461317699.3507511381794526.09130278
317765.9007470881794527.81744567317841.9877601791794517.95524177
317918.7694383351794509.33806177317966.7329425681794510.58847673
 318006.175809681794522.23489145318046.8235941491794541.21958093
318082.1696154011794570.68414548 318114.579021131794605.75069305
318144.776207539 1794649.9655706 318168.249050491794713.61386917
 318190.718484091794795.50823544318209.538359333  1794851.205099
318237.4837894271794901.13803192318271.0553341441794938.47481509
318311.3889077911794960.94847324318354.5925669111794969.81971077
318386.3465773741794967.22138239318418.0155612371794954.36509406
318440.6255994781794934.67839419318456.6853110021794914.13854579
 318469.017264381794879.84065876318478.9750628361794836.43253771
318480.4654109651794794.35617023318472.574095075 1794755.5447065
318452.658139989 1794705.5560488318423.5690884081794655.63235372
318392.2946962361794619.40507791318367.8959105141794581.99205012
318350.3253377161794537.67222672 318343.109539181794497.83705954
318342.7692862211794456.79397032318351.5265766851794406.56768036
318371.6610231521794344.83746957318407.7044353821794263.65323896
318459.644152737 1794164.0333287 318521.902868971794063.19936829
 318578.225796031793994.38605509318629.3909391831793939.23852789
318699.3162201321793877.04151913318777.9935727521793819.38717041
318831.6642532781793790.43613445318886.5557528571793769.46519699
318903.3137495441793767.27944171318951.4195773011793761.00575808
319028.8043763141793769.43026606319154.0465273841793794.61328332
319259.8167413891793822.24829378319327.5640844711793838.04611552
319397.4246391641793844.30952867319456.2068219551793842.63011996
  319510.69625491793829.93077981 319571.692111051793804.91634726
 319619.574964331793775.45060041319664.0245759671793732.84408925
319715.5186188141793683.50666243319762.6516126051793646.01317689
319815.5360336791793604.47754006319850.3650832631793571.19107019
 319883.711031991793525.25680033319931.4376799721793470.14104287
319991.6416196111793396.68543226320038.1860722011793338.16013785
320076.7962143671793289.95868703320109.7880018881793255.48156327
320147.4213670641793228.94535018320183.9669779431793209.26826977
320224.0688481131793202.10039843320265.3974739121793206.32099693
320291.9246334111793223.20125871320324.3600108921793261.70125062
320332.7444025371793304.95771176320344.5420974221793345.90651828
320355.159666853 1793381.1547076320370.3639809691793416.37638837
320395.8669231831793449.23402256 320460.62449948 1793512.5459881
320526.2263889031793594.14403046320570.3193420461793655.34573852
320601.0541658541793710.90227456320616.3977991981793763.22058272
320624.9027695861793821.29407276320605.8215722721793872.75425144
320578.5152931781793900.33399574320539.6814095881793921.18016071
320470.5244118391793936.73045153320401.309424024 1793938.6697062
320333.0896105751793928.97017517320240.0102417811793894.44236707
 320133.499470471793859.69313687320069.556974956 1793847.5025335
320007.842649288 1793847.5554675319950.6422013521793853.03833883
319893.3874049971793864.91823503319841.9287111611793884.71851777
319799.7182430341793913.56168551319759.9284504461793957.21413745
 319713.609867341794044.23463207319668.5402079411794142.65455134
319602.9094153891794252.64235016319514.4119814011794370.73129916
319422.5380037791794498.03374969319377.2639566121794571.36843677
319354.8472834751794635.39597723319353.0185848911794692.40362273
319367.2773181391794751.56939903319399.7782799051794798.04642748
319456.3186833831794838.61504455319523.101857765 1794868.8518124
319598.551789157 1794893.4177405319656.1792591711794927.14982574
319727.8389787421794992.68235368319796.6551830251795075.21447506
319847.5670458881795128.37967001319887.8889042631795149.70520283
319931.0912315871795158.57945054319977.4239743991795158.08793359
 320030.756813231795142.94230182320115.4340208891795118.30992595
320193.7146463561795095.88836736320285.089988523  1795048.404772
320361.0558569981794996.59924277320428.9724011031794969.70420838
320536.4249088991794924.35861756320663.3220163391794872.02641523
320780.0054581791794832.30577912320857.2189746361794806.03331547
320938.9501045491794766.05717311320995.9456425361794727.94341654
321039.4020872891794711.63061567321100.140707044 1794703.7200652
321216.0103224821794696.42211786321328.3958532471794693.22564303
 321420.053628051794679.94012495321497.7743575331794646.24036508
321625.4396871581794546.02359547321700.8176401821794505.50468325
321824.2768566071794453.20773542321901.9540107091794412.67089459
321958.920900212 1794365.4746608321999.5891940051794288.75310117
322012.6186576861794197.44929689322002.4087636141794069.84841673
321990.0103958561793955.83268715321982.5151246871793880.76396677
321993.5517482371793827.09097532322029.8940593651793782.34228895
322082.3410619241793743.15107878  322139.5520645 1793724.4494619
322224.384327942 1793718.0621765322419.4757845621793727.87929147
322492.747763988  1793723.866365322572.8918541111793704.96917192
322634.7875162961793685.09115345322703.3232274981793648.05107287
  322787.68802571793598.35619427322863.2440207891793564.67941999
322945.7244401631793550.33519699323058.188776342 1793556.2662269
323218.8224523241793574.34748602323326.6631194361793575.75783991
323445.9447651791793559.97916443323535.3122427421793560.39949467
323588.3125767731793589.61953412323623.3133108661793647.48016753
323646.680280258 1793714.5530422323653.8015894851793773.09171615
323684.3169726041793815.70595867323716.6045131661793855.34021812
323764.9211591621793868.64068904323819.9624422631793865.91857644
323865.6841569071793845.03427154 323915.761966781793796.74819677
323963.3324124031793721.12658806 323993.813627991793672.99811714
324028.9372026771793647.75066723324081.8751930641793626.68723323
 324139.215670641793623.94753918324210.480425997  1793641.624237
324293.2779200511793653.49853447324368.8302018891793647.19400945
324446.6403529761793623.76326257324540.4102686181793586.53827322
324641.073119227  1793551.527161324732.7271966891793537.11640445
324806.1807959831793541.08860255324863.7292154531793565.70485954
324910.1874296271793623.47567281324959.0904194351793714.29288643
324994.0703243531793799.51116111325015.3627144151793879.15070033
325029.4500961841793991.10577299325042.3396649191794053.47164807
325043.7213361171794111.37010916325039.602914166 1794163.3367251
325029.4656978911794208.67847156325013.792834765 1794248.9850362
324970.2576344391794328.10204148324933.9029447031794401.29670607
324918.7259487951794447.42024915324912.9504535511794484.62677367
324914.1910046781794524.80938457324921.1396709671794568.86382825
324935.041444892 1794608.0267763324958.6630838531794643.34955791
  324990.94705781794677.62933565325027.7786210071794701.68084439
 325076.824720161794723.68722684325113.6228176761794735.53309466
325170.0917448471794747.22203822325221.8467761881794749.66417646
325277.5356910321794742.65771993325347.9567823851794726.19408565
   325405.0351241794707.04833181325451.8311010991794684.21107955
325495.887031225 1794650.2410368325544.2723196691794604.08594676
325581.9721455531794562.68597523 325646.200278441794475.93600643
325673.1506366111794439.29170212325707.2897477971794411.21081699
325736.7614102161794395.81575518325771.4651493851794388.97755753
325801.6077613351794393.41891033 325825.509698491794406.33126557
325836.2341904051794427.96892576325843.0899567971794460.57071814
325849.1320880091794521.28706283325855.2692955911794600.69342392
325865.1745611641794663.20498702325882.7216155431794741.54684681
325906.0816593431794823.54968676325935.6988022621794905.91226953
325977.749077908 1794986.8592252326016.6727000491795041.65957363
326049.8114510421795069.43806095326083.8025494841795088.77740227
326135.9799720681795101.47658735326181.1671376861795107.66912601
326236.5960394051795104.38533389326298.554885934 1795092.7170823
326373.7039490791795087.45135288 326443.503484811795080.33595912
326504.4819929061795067.71332053 326556.651165841795051.05507142
326620.3801968011795022.57534455326677.5020351421794994.07063504
326757.7022268971794946.12849001326818.5899016981794913.84298924
326868.2397968441794897.60384187326916.1885640381794890.67379913
326957.5616045711794893.13561236327001.235625092 1794904.0227807
327048.4029439671794929.46759436327086.2613229471794959.37922543
327129.8732556881795005.77828038327184.0224267451795080.12473032
327225.8393010181795138.91001003 327274.191100111795189.93073612
327340.7823967371795249.19586222327390.9712303851795294.62500054
 327419.465906491795328.94881787327437.5550627571795361.51767814
327443.4305654941795386.72422755327439.8694133651795415.08150846
327428.8620540951795444.11716949327394.0180697781795484.51747094
   327343.9380871795526.06711207327283.7666601291795567.68541486
327238.927206237 1795605.3761955327210.1212014571795646.75836776
327185.2709686041795709.82109311327173.5150645021795775.33677618
327175.1586729431795860.31160242327182.0864350271795902.31924019
327197.3344134511795931.14785352327216.3184459571795952.48842366
327250.2629524931795966.24132273327291.6528638591795972.46590489
327333.881573476  1795967.119859327370.4311653491795954.69210145
327413.8642408481795928.53243412327503.4827540491795845.58286358
327554.8609348911795808.75959793327603.8980976781795786.88306918
327650.7563686671795773.40084544 327705.267969221795769.26468063
327745.7270011331795772.65348362327779.0231499821795784.18801083
 327812.711117561795802.04930556327842.0324139451795826.09772538
327866.686831309 1795854.8638231327887.9778421061795885.52655124
327911.8744877491795934.87049418327947.371601771 1796029.2618324
327985.0077635971796155.09726634328002.318916982 1796204.4819536
328012.9410693821796235.23965999328030.0431234461796259.38427318
328054.6260038271796279.13222652328083.8658548661796292.92327419
328117.7210668181796295.45711232 328155.294604151796289.57372488
328189.0355925681796276.19555727328221.7003689491796244.19062887
328245.8042320961796202.91316841328257.9811558851796153.91667244
328263.1315032611796095.00478786328257.4632635251796007.50560209
328236.7819131671795893.67630135328214.4435005331795794.85453093
328211.5637398641795749.38452661328216.5435346761795704.15164414
328233.993707988 1795655.4568568328260.0047470821795615.97937514
328291.1680289211795588.66739833328329.5375097081795566.87627277
328372.6804359421795555.30604369 328416.545703611795554.05487243
328457.9608194951795562.10740047328498.559241821 1795583.2796691
328535.1506694511795612.91571032 328570.590325871795656.58150204
328602.6385660331795713.60847079 328637.154974091795793.69992472
328664.0442836431795866.39258603328692.6913264281795928.74689455
328741.8875072641796014.58859809328871.9591910121796221.03749826
328982.3158648751796385.11423537329064.3542422621796520.68513528
329123.5381925161796601.77958626329150.7421084531796627.43956245
329179.2770268341796638.73654149329209.1204860251796641.00453257
329240.3960816181796636.37832259329269.4086545731796621.21282958
329303.0660835041796598.49732208329323.2413067531796575.54396929
329499.3606557171796289.77474872329530.7660009021796226.24365976
329555.3081805321796161.32749564329577.4862817931796063.24284729
329619.2630783951795874.83997337329644.8761434161795783.95484003
329670.7497700641795689.42702701329674.2976094991795650.75698736
329676.7056619231795600.24414068329668.5180864911795512.47706166
329657.4926834911795437.84525729329653.4311509111795393.98913447
329654.9949388261795360.00438347329662.3601378211795333.78709961
329680.9180110471795307.48277497329708.9699684441795286.74830181
329740.8784901211795275.26825012329787.8150493921795270.23357707