Flow Title=Unsteady Flow Data
Program Version=6.60
Use Restart= 0 
Boundary Location=Chi River_DS    ,Reach 2         ,1107    ,        ,                ,                ,                ,                                ,                                
Gate Name=Gate #1     
Gate DSS Path=
Gate Use DSS=False
Gate Time Interval=1DAY
Gate Use Fixed Start Time=False
Gate Fixed Start Date/Time=,
Gate Openings= 731 
      11      11      11      11      11      11      11      11      11      11
      11      11      11      11      11      11      11      11      11      11
      11      11      11      11      11      11      11      11      11      11
      11      11      11      11      11      11      11      11      11      11
      11      11      11      11      11      11      11      11      11      11
      11      11      11      11      11      11      11      11      11      11
      11      11      11      11      11      11      11      11      11      11
      11      11      11      11      11      11      11      11      11      11
      11      11      11      11      11      11      11      11      11      11
      11      11      11      11      11      11      11      11      11      11
      11      11      11      11      11      11      11      11      11      11
      11      11      11      11      11      11      11      11      11      11
      11      11      11      11      11      11      11      11      11      11
      11      11      11      11      11      11      11      11      11      11
      11      11      11      11      11      11      11      11      11      11
      11      11      11      11      11      11      11      11      11      11
      11      11      11      11      11      11      11      11      11      11
      11      11      11      11      11      11      11      11      11      11
      11      11      11      11      11      11      11      11      11      11
      11      11      11      11      11      11      11      11      11      11
      11      11      11      11      11      11      11      11      11      11
      11      11      11      11      11      11      11      11      11      11
      11      11      11      11      11      11      11      11      11      11
      11      11      11      11      11      11      11      11      11      11
      11      11      11      11      11      11      11      11      11      11
      11      11      11      11      11      11      11      11      11      11
      11      11      11      11      11      11      11      11      11      11
      11      11      11      11      11      11      11      11      11      11
      11      11      11      11      11      11      11      11      11      11
      11      11      11      11      11      11      11      11      11      11
      11      11      11      11      11      11      11      11      11      11
      11      11      11      11      11      11      11      11      11      11
      11      11      11      11      11      11      11      11      11      11
      11      11      11      11      11      11      11      11      11      11
      11      11      11      11      11      11      11      11      11      11
      11      11      11      11      11      11      11      11      11      11
      11      11      11      11      11      11      11      11      11      11
      11      11      11      11      11      11      11      11      11      11
      11      11      11      11      11      11      11      11      11      11
      11      11      11      11      11      11      11      11      11      11
      11      11      11      11      11      11      11      11      11      11
      11      11      11      11      11      11      11      11      11      11
      11      11      11      11      11      11      11      11      11      11
      11      11      11      11      11      11      11      11      11      11
      11      11      11      11      11      11      11      11      11      11
      11      11      11      11      11      11      11      11      11      11
      11      11      11      11      11      11      11      11      11      11
      11      11      11      11      11      11      11      11      11      11
      11      11      11      11      11      11      11      11      11      11
      11      11      11      11      11      11      11      11      11      11
      11      11      11      11      11      11      11      11      11      11
      11      11      11      11      11      11      11      11      11      11
      11      11      11      11      11      11      11      11      11      11
      11      11      11      11      11      11      11      11      11      11
      11      11      11      11      11      11      11      11      11      11
      11      11      11      11      11      11      11      11      11      11
      11      11      11      11      11      11      11      11      11      11
      11      11      11      11      11      11      11      11      11      11
      11      11      11      11      11      11      11      11      11      11
      11      11      11      11      11      11      11      11      11      11
      11      11      11      11      11      11      11      11      11      11
      11      11      11      11      11      11      11      11      11      11
      11      11      11      11      11      11      11      11      11      11
      11      11      11      11      11      11      11      11      11      11
      11      11      11      11      11      11      11      11      11      11
      11      11      11      11      11      11      11      11      11      11
      11      11      11      11      11      11      11      11      11      11
      11      11      11      11      11      11      11      11      11      11
      11      11      11      11      11      11      11      11      11      11
      11      11      11      11      11      11      11      11      11      11
      11      11      11      11      11      11      11      11      11      11
      11      11      11      11      11      11      11      11      11      11
      11      11      11      11      11      11      11      11      11      11
      11
Boundary Location=Chi River_US    ,Reach 1         ,62029   ,        ,                ,                ,                ,                                ,                                
Gate Name=Gate #1     
Gate DSS Path=
Gate Use DSS=False
Gate Time Interval=1DAY
Gate Use Fixed Start Time=False
Gate Fixed Start Date/Time=,
Gate Openings= 731 
      10      10      10      10      10      10      10      10      10      10
      10      10      10      10      10      10      10      10      10      10
      10      10      10      10      10      10      10      10      10      10
      10      10      10      10      10      10      10      10      10      10
      10      10      10      10      10      10      10      10      10      10
      10      10      10      10      10      10      10      10      10      10
      10      10      10      10      10      10      10      10      10      10
      10      10      10      10      10      10      10      10      10      10
      10      10      10      10      10      10      10      10      10      10
      10      10      10      10      10      10      10      10      10      10
      10      10      10      10      10      10      10      10      10      10
      10      10      10      10      10      10      10      10      10      10
      10      10      10      10      10      10      10      10      10      10
      10      10      10      10      10      10      10      10      10      10
      10      10      10      10      10      10      10      10      10      10
      10      10      10      10      10      10      10      10      10      10
      10      10      10      10      10      10      10      10      10      10
      10      10      10      10      10      10      10      10      10      10
      10      10      10      10      10      10      10      10      10      10
      10      10      10      10      10      10      10      10      10      10
      10      10      10      10      10      10      10      10      10      10
      10      10      10      10      10      10      10      10      10      10
      10      10      10      10      10      10      10      10      10      10
      10      10      10      10      10      10      10      10      10      10
      10      10      10      10      10      10      10      10      10      10
      10      10      10      10      10      10      10      10      10      10
      10      10      10      10      10      10      10      10      10      10
      10      10      10      10      10      10      10      10      10      10
      10      10      10      10      10      10      10      10      10      10
      10      10      10      10      10      10      10      10      10      10
      10      10      10      10      10      10      10      10      10      10
      10      10      10      10      10      10      10      10      10      10
      10      10      10      10      10      10      10      10      10      10
      10      10      10      10      10      10      10      10      10      10
      10      10      10      10      10      10      10      10      10      10
      10      10      10      10      10      10      10      10      10      10
      10      10      10      10      10      10      10      10      10      10
      10      10      10      10      10      10      10      10      10      10
      10      10      10      10      10      10      10      10      10      10
      10      10      10      10      10      10      10      10      10      10
      10      10      10      10      10      10      10      10      10      10
      10      10      10      10      10      10      10      10      10      10
      10      10      10      10      10      10      10      10      10      10
      10      10      10      10      10      10      10      10      10      10
      10      10      10      10      10      10      10      10      10      10
      10      10      10      10      10      10      10      10      10      10
      10      10      10      10      10      10      10      10      10      10
      10      10      10      10      10      10      10      10      10      10
      10      10      10      10      10      10      10      10      10      10
      10      10      10      10      10      10      10      10      10      10
      10      10      10      10      10      10      10      10      10      10
      10      10      10      10      10      10      10      10      10      10
      10      10      10      10      10      10      10      10      10      10
      10      10      10      10      10      10      10      10      10      10
      10      10      10      10      10      10      10      10      10      10
      10      10      10      10      10      10      10      10      10      10
      10      10      10      10      10      10      10      10      10      10
      10      10      10      10      10      10      10      10      10      10
      10      10      10      10      10      10      10      10      10      10
      10      10      10      10      10      10      10      10      10      10
      10      10      10      10      10      10      10      10      10      10
      10      10      10      10      10      10      10      10      10      10
      10      10      10      10      10      10      10      10      10      10
      10      10      10      10      10      10      10      10      10      10
      10      10      10      10      10      10      10      10      10      10
      10      10      10      10      10      10      10      10      10      10
      10      10      10      10      10      10      10      10      10      10
      10      10      10      10      10      10      10      10      10      10
      10      10      10      10      10      10      10      10      10      10
      10      10      10      10      10      10      10      10      10      10
      10      10      10      10      10      10      10      10      10      10
      10      10      10      10      10      10      10      10      10      10
      10      10      10      10      10      10      10      10      10      10
      10
Boundary Location=lampao          ,Reach 1         ,37154   ,        ,                ,                ,                ,                                ,                                
Interval=1DAY
Flow Hydrograph= 731 
   32.64   34.72   33.94   33.42   33.42    32.9   30.04   27.68   27.46   27.02
    26.8    25.7   24.82   23.28    22.4   23.94   21.52   20.86   20.64   19.32
   18.22    16.2    14.2      12    10.4     9.4      12    12.4    12.6    12.4
     9.4     8.8       9     8.8     8.8       9     8.8     8.6     8.6     8.6
       9     9.8    11.2    11.2      11      11      11      11    11.4    11.8
       9     9.2     9.2     9.4     9.6     9.4     9.4     8.8     8.4     8.2
       8     8.8     8.6     8.8     8.8     8.8       9       9     9.2     9.2
     9.6    10.4    11.6    11.6    11.6    12.4    14.8    15.6    15.2    14.2
    14.2    14.6   18.22      18      16    12.6    11.4    12.6    14.8    13.2
      11    10.6    10.6    10.2      10    10.4    10.2    10.4    10.2      10
      11      13    13.2    14.2      15    16.4   18.44      18   19.32   20.86
   20.64    21.3   23.72   26.58    24.6   21.74   21.08    23.5      29   31.08
   26.58   23.06   23.72   27.02   27.02   27.46   31.34   43.68    65.8   69.44
   69.16   69.44      70   85.68  103.33  114.33  112.67    98.6   91.12   92.48
   92.14   93.84   99.62  113.33     126     141  152.36  152.36  148.67  140.33
      52    60.5    63.5    66.8    70.4    73.1    79.4    82.9      85    83.6
    80.8    78.7    78.7    83.6    87.1    96.9   103.9   111.6     123     126
   138.5   156.7   176.2   184.6   190.8   190.8   184.6   183.2     179     179
   176.2   174.8   174.8   170.6   167.8   163.6   162.2   155.4   142.4     129
   116.4   102.5    91.3    80.8    69.8    63.5      54      48    42.9    39.4
    42.2      46    49.5      50    49.5      45   41.15    37.3    32.5   30.75
      30      29   28.75   28.75   28.75   28.75   28.25   28.25   28.25   28.75
    29.5   31.25    33.5    36.6   39.75    42.9    46.5    51.5      54      56
    57.5    57.5      57    55.5     141  139.67  138.33  136.67  134.33  132.33
     130  127.33     125     124  117.33     111  104.33   92.14    74.8    57.4
   37.32   21.74    14.4       9     8.4       9      10      10      10    10.4
     9.6     9.4      11    16.2      15    15.2    13.4      12      12    11.8
    11.8      12      12    12.4    13.4      14    14.4    14.6    15.4    15.4
    15.6    15.6    15.6      15      15    14.4    14.6      16      18   19.54
   18.88    16.4    15.6      15    15.2    15.4    15.8    16.4   18.22   19.98
   19.54    19.1   18.88    19.1   18.88   18.66      17    16.6    16.4    17.6
   19.54   19.98   18.44    17.4    16.4    15.6    15.6      18    17.2      16
    14.8      15    17.4   20.64   19.76   18.88    21.3   26.58   28.34   28.34
   27.02   26.58   26.36   24.16   23.94    22.4   22.84   21.96   21.96   21.96
   21.96   22.18   22.84   26.36      29   32.38    32.9   31.86   31.34   30.56
   31.34   32.64   33.68   35.24   34.72   33.16   31.86   32.12   34.98   37.84
   36.54    35.5   34.98   34.98   34.72   44.68   44.68   41.96    41.7    40.4
   38.84   38.84   38.58   39.88   42.22   41.96   41.18   36.24    28.8   28.08
   28.08   28.08   28.08   28.56    32.6   41.44   42.48   41.96   41.44   41.18
    41.7   42.22   42.48   41.96   42.74   27.36   25.68   24.24    26.4   39.62
   45.24   46.08   47.48   53.08   53.08   52.24    51.4   52.24   54.48   57.32
      57    55.6   55.04   54.76   58.92   64.36   63.08   58.92   54.76   51.96
   50.56      50      50      50   48.88   33.12   22.56      24   16.56   15.66
   18.48   22.32   28.08   29.52    28.8   25.44   23.04   22.32   22.32   27.12
      30   29.52   23.76   19.44   18.48    25.2   38.32    28.8   20.16   17.46
    17.1    17.1   16.92   16.92   16.74   16.92   17.82   18.48   21.12   25.92
   26.16   24.72   23.52   22.08   24.24   40.66   46.36    40.4   39.62   50.28
    55.6   53.36   50.28   46.92    37.8   33.12   31.82   37.02   53.36   59.56
   67.56   80.02    80.4   80.95   81.22   81.34   81.43   82.06   83.14   84.16
      85   86.36    86.6   86.68    86.6    87.4   89.32   93.48    95.4   94.76
    92.2   88.76   87.24   86.28   86.36   87.48   88.84   89.16   91.88   95.56
   96.04   96.52      97   96.84   96.68   96.68   101.6   109.2   110.4   107.1
    97.6   89.16   89.96   90.92   92.36    94.6      97   100.2   105.3   112.5
   119.8   123.8     130   147.4   155.9   160.1   161.5   162.9   165.8   173.8
     191   213.3     241   270.1     292   321.8   321.8   334.4     350   354.4
   354.4   354.4   363.2     372   376.4     372   367.6   354.4   326.6     298
     265   246.6   235.4   223.6   216.6   212.2     204     198   181.9     165
     151     139   132.5   126.2   121.4   117.4   114.6   113.7   111.9   110.4
   108.9   107.7   105.9   104.6   103.4   102.2   101.2     100      99    99.6
    99.2      98   96.36   95.08   93.96   93.16   91.88   91.24    91.4    91.4
    91.4    90.6   89.64   87.64   86.68   85.48   83.98   82.72   81.85   80.77
   80.09   75.97   73.66   71.72   72.36    71.4   67.88   69.16    69.8   71.72
   72.68   72.04   72.36   73.66   77.04   79.63      80   79.26   77.04    76.3
   76.67   77.78   78.52   77.78   77.78   77.78   77.04   78.52   79.26   79.63
      80   80.03   80.04   79.26   77.78   77.78   77.41   77.78   76.67   75.97
   75.31   80.05   80.56   80.77   80.62   80.22   80.04   80.03   80.04   80.18
    81.7   82.48   82.54   81.61   80.48   72.04   63.72   59.88    58.6   56.72
   53.92   53.64   53.08   53.36   53.36   53.36   53.36   53.36   53.36   53.36
   50.28    41.7   33.64      30   35.72    45.8   46.92   76.67   78.89   77.41
   75.97      73   73.99   75.64    76.3   75.64   74.65   74.32   78.89   80.14
    80.2   79.26    76.3    76.3    76.3    76.3    76.3   73.33   73.33      73
   73.33   69.16    63.4    60.2   64.68   72.04   57.96   53.36   49.16    48.6
    47.2   44.12   35.46    35.2   34.94   34.68   34.68   33.64      30   28.32
   27.12
Stage Hydrograph TW Check=0
DSS Path=
Use DSS=False
Use Fixed Start Time=False
Fixed Start Date/Time=,
Is Critical Boundary=False
Critical Boundary Flow=
Boundary Location=Chi River_DS    ,Reach 2         ,527     ,        ,                ,                ,                ,                                ,                                
Friction Slope=0.0001,0
Boundary Location=Chi River_US    ,Reach 1         ,184803  ,        ,                ,                ,                ,                                ,                                
Interval=1DAY
Flow Hydrograph= 731 
     9.4      12    12.8    11.2     9.7    14.4     7.3     3.4     5.2    12.8
    11.6       6     4.7     9.7    10.8     8.8     8.8     8.2       6       5
     4.7     4.5     3.9     2.8    2.75    3.65     4.9     4.7     3.9     3.6
     5.2     3.7    2.35     2.5     4.7     4.3    1.85    1.48     1.4    1.42
    1.95       2     1.6    1.34     .28       0       0       0       0       0
       0       0       0       0       0       0       0       0       0       0
       0       0       0       0       0       0       0       0     .08     .26
      .7     .74     .78     .74      .7     .74     1.4    1.34    1.12    1.08
    1.02    1.12    1.22    1.16     .62     .12       0       0       0     .16
     .14     2.6     2.3     2.2     1.9     1.9     2.4    3.25    3.05    2.55
       2    1.75    1.65    1.75    2.45    3.45     4.2     5.2       7     9.4
    12.8    20.8    31.5      38      30      20      12    14.8    14.8      10
     4.5     2.9   38.82   73.24   101.6   119.6     125  150.02  183.64  189.08
  211.12  245.32     282   334.8  378.48  400.32  412.56  409.92  414.32  445.12
   476.8   501.7   526.9     544   557.5   568.3  582.79  584.65  588.37  593.95
  606.97  624.64   626.5  630.22  633.01   635.8  636.73  636.73  638.59  637.66
   635.8  631.15  624.64  620.92  619.99  620.92  629.29  639.52  647.89   654.4
  659.98  665.56  670.21   676.3   684.8   687.2   689.6     692   695.4   702.2
     709   713.2   713.2   713.2   713.2   711.8   710.4   710.4   710.4   707.3
   703.9   700.5   697.1   695.4     692   693.7   691.2   689.6   688.8   688.8
   690.4   693.7   702.2   713.2     723     735     741     747     753   759.8
   763.2   766.6   759.8   777.2   784.4     794     804     810   832.8   862.4
   898.4   942.6   978.4  1019.8  1060.8  1096.4  1116.2  1129.4  1122.8    1103
  1060.8    1047  1033.2  1007.2   986.2     964   942.6     912     895   872.8
     852     826     792     750   697.1  656.26  605.11   536.8     446  361.68
   247.2  207.44  188.08  175.12  157.96  145.72  134.84  127.36   113.2   99.76
   71.86    59.5   94.64   97.84   89.68   88.06   86.44   76.72      61    17.6
      14    13.2    16.8    15.6      10     9.7      10    12.4    14.4    15.6
    15.6    15.6    14.4    15.2      16    14.8    16.4    15.2    14.8    17.6
    16.4      20    19.2      18      18    21.2      26      32      46    51.5
      47    37.5    25.5      20    16.4    16.4    37.5      35      36    45.5
      59    66.5      65      60      50      35    30.5    35.5    21.6     7.9
      12    26.5    32.5      33    27.5    27.5    18.8    18.4      42    42.5
      44    45.5      44    42.5      43    40.5      35      37      37      31
      28      27    24.5    22.5      27      37    41.5      41      39    37.5
    31.5    28.5      27    29.5      38    35.5    28.5      24      24    30.5
    34.5      30    26.5    27.5      38   49.36    49.8   48.92   39.24    36.6
    38.8   44.96   57.94   66.58   66.04   67.66    65.5   61.72   61.72   63.88
   63.34    60.1    54.7   50.24   45.84    43.2   35.72    34.4   32.64   24.88
   18.48   21.68      30    32.2   33.96   50.68    49.8   53.62   55.24   58.48
   54.16   43.64   37.04   27.76    23.6   31.32   35.28   48.92   80.24   71.98
   55.24   50.68   50.24    54.7   54.16   53.08      52   61.72   66.04   61.18
   62.26   66.58   89.54   93.26   82.72   74.14   69.28    76.3  126.64     145
  154.92  169.18  209.36  241.32     259  256.96  254.24   252.2  251.52   235.2
  222.96  193.28  174.14  158.02  164.22  164.22  151.82   142.3  136.36  124.48
  113.84   102.4   93.56  100.84  113.84  110.72   107.6  114.36   120.7  124.48
   115.4   115.4   115.4  117.48  120.16     118  116.44  135.28  159.26  186.88
   195.2  206.08   204.8  203.52  194.56  181.12   160.5  158.64  150.58  146.86
  158.02  169.18   185.6  203.52  219.56  227.72  243.36     242  242.68  246.76
  250.84  257.64  261.72  260.36  259.68  259.68   262.4  273.28  291.64  304.56
  305.24  307.28  312.96  311.48  338.12  348.48  366.24  387.04  407.56   439.6
   434.8   440.4   442.8   445.2   448.4   454.8  463.68  471.24  477.96  484.68
  494.76     504     513     523     533     544     553   574.8   596.4   615.4
   632.2     650   674.2   702.6   722.8   734.8   747.4   760.9   788.6   820.2
     860   924.4   947.4   966.4   971.2     976   980.8   990.4    1000  1014.4
  1028.8  1043.2  1058.4    1074  1110.8    1154    1208  1263.6  1314.4    1373
  1432.8  1479.8  1500.2  1513.8    1541  1568.6    1624    1659  1561.7  1513.8
  1520.6  1534.2  1527.4  1500.2  1466.3  1432.8  1392.8  1366.4  1333.6  1288.8
  1226.4    1196    1154  1121.6  1089.6  1058.4    1024   995.2   966.4   938.2
     906   873.8   849.8   829.4   808.6   791.4   763.6   732.4   700.4   663.4
   622.4   579.6     533  482.16   427.6  352.18  333.68  305.92  275.32  263.08
  227.04  183.04   160.5   151.2  123.32     110  118.14   132.2  119.62  110.74
  115.18  126.28  125.54  118.14  112.96  108.14  102.56    91.4   80.86   86.44
   80.86    70.9    57.4   71.44   41.88   60.64   77.92   74.14   71.98    73.6
    82.1   90.78   81.48   72.52   75.76   74.68   71.98    68.2   67.12    70.9
   72.52   70.36   68.74   61.72   60.64   69.28    76.3   75.22   89.54  124.06
  154.02  200.08  215.92  168.84     147  129.24   139.6   113.7   96.36      79
   61.72   67.12   69.82   74.68   77.92   78.46   75.76   71.98   66.04   62.26
   67.12   68.74   63.88   63.88   59.56    62.8   66.58   68.74   67.66   66.58
   59.56   56.86   64.42    68.2   69.82   69.82   64.42   66.58   80.86   82.72
   69.28   44.52   30.44   44.08    68.2   82.72    91.4   89.54    85.2   85.82
    88.3   74.68   66.58   68.74   67.12   66.58   71.44   75.76   83.34   82.72
   72.52   72.52   73.06    65.5   63.88   70.36   70.36   51.12   44.96   46.28
    47.6
Stage Hydrograph TW Check=0
Flow Hydrograph QMin= 2 
DSS Path=
Use DSS=False
Use Fixed Start Time=False
Fixed Start Date/Time=,
Is Critical Boundary=False
Critical Boundary Flow=
Met Point Raster Parameters=,,,,
Precipitation Mode=Disable
Wind Mode=No Wind Forces
Air Density Mode=
Wave Mode=No Wave Forcing
Met BC=Precipitation|Expanded View=0
Met BC=Precipitation|Point Interpolation=Nearest
Met BC=Precipitation|Gridded Source=DSS
Met BC=Precipitation|Gridded Interpolation=
Met BC=Evapotranspiration|Expanded View=0
Met BC=Evapotranspiration|Point Interpolation=Nearest
Met BC=Evapotranspiration|Gridded Source=DSS
Met BC=Evapotranspiration|Gridded Interpolation=
Met BC=Wind Speed|Expanded View=0
Met BC=Wind Speed|Point Interpolation=Nearest
Met BC=Wind Speed|Gridded Source=DSS
Met BC=Wind Speed|Gridded Interpolation=
Met BC=Wind Direction|Expanded View=0
Met BC=Wind Direction|Point Interpolation=Nearest
Met BC=Wind Direction|Gridded Source=DSS
Met BC=Wind Direction|Gridded Interpolation=
Met BC=Wind Velocity X|Expanded View=0
Met BC=Wind Velocity X|Point Interpolation=Nearest
Met BC=Wind Velocity X|Gridded Source=DSS
Met BC=Wind Velocity X|Gridded Interpolation=
Met BC=Wind Velocity Y|Expanded View=0
Met BC=Wind Velocity Y|Point Interpolation=Nearest
Met BC=Wind Velocity Y|Gridded Source=DSS
Met BC=Wind Velocity Y|Gridded Interpolation=
Met BC=Wave Forcing X|Expanded View=0
Met BC=Wave Forcing X|Point Interpolation=Nearest
Met BC=Wave Forcing X|Gridded Source=DSS
Met BC=Wave Forcing X|Gridded Interpolation=
Met BC=Wave Forcing Y|Expanded View=0
Met BC=Wave Forcing Y|Point Interpolation=Nearest
Met BC=Wave Forcing Y|Gridded Source=DSS
Met BC=Wave Forcing Y|Gridded Interpolation=
Met BC=Air Density|Mode=Constant
Met BC=Air Density|Expanded View=0
Met BC=Air Density|Constant Value=1.225
Met BC=Air Density|Constant Units=kg/m3
Met BC=Air Density|Point Interpolation=Nearest
Met BC=Air Density|Gridded Source=DSS
Met BC=Air Density|Gridded Interpolation=
Met BC=Air Temperature|Expanded View=0
Met BC=Air Temperature|Point Interpolation=Nearest
Met BC=Air Temperature|Gridded Source=DSS
Met BC=Air Temperature|Gridded Interpolation=
Met BC=Humidity|Expanded View=0
Met BC=Humidity|Point Interpolation=Nearest
Met BC=Humidity|Gridded Source=DSS
Met BC=Humidity|Gridded Interpolation=
Met BC=Air Pressure|Mode=Constant
Met BC=Air Pressure|Expanded View=0
Met BC=Air Pressure|Constant Value=1013.2
Met BC=Air Pressure|Constant Units=mb
Met BC=Air Pressure|Point Interpolation=
Met BC=Air Pressure|Gridded Source=DSS
Met BC=Air Pressure|Gridded Interpolation=
Non-Newtonian Method= 0 ,     
Non-Newtonian Constant Vol Conc=0
Non-Newtonian Yield Method= 0 ,     
Non-Newtonian Yield Coef=0, 0
User Yeild=   0
Non-Newtonian Sed Visc= 0 ,     
Non-Newtonian Obrian B=0
User Viscosity=0
User Viscosity Ratio=0
Herschel-Bulkley Coef=0, 0
Clastic Method= 0 ,     
Coulomb Phi=0
Voellmy X=0
Non-Newtonian Hindered FV= 0 
Non-Newtonian FV K=0
Non-Newtonian ds=0
Non-Newtonian Max Cv=0
Non-Newtonian Bulking Method= 0 , 
Non-Newtonian High C Transport= 0 , 
Lava Activation= 0 
Temperature=1300,15,,15,14,980
Heat Ballance=1,1200,0.5,1,70,0.95
Viscosity=1000,,,
Yield Strength=,,,
Consistency Factor=,,,
Profile Coefficient=4,1.3,
Lava Param=,2500,
